CasosCEPEL/65barras.pwf
TITU
Sistema-Teste de 65 Barras - Caso Base                                          
DOPC IMPR
(Op) E (Op) E (Op) E (Op) E (Op) E (Op) E (Op) E (Op) E (Op) E (Op) E
QLIM L CREM L CTAP L STEP L NEWT L MOCT L MOCG L MOCF L RCVG L RMON L
FILE L
9999
DBAR
(No) O TB(   nome   )G( V)( A)( Pg)( Qg)( Qn)( Qm)( Bc)( Pl)( Ql)( Sh)(A(Vf)
  18   1AITUMBIAR-4GRA10003.56 800.-332.-400. 400.                     11000
  20   1AMARIMBON-5GRA1010-1.3 900.-253.-480. 480.                     11000
  48   1AIBIUNA---3CSA1000-27.   0.-618.-10801200.                     11000
 100    BMARIMBON-500C1048-7.5                                         11000
 101    BARARAQUA-500C1069-19.                                         11000
 102    BPOCOS----500C1068-29.                                         11000
 103    BCAMPINAS-500C1063-29.                                         11000
 104    BC.PAULIS-500C1053-38.                         1200. 150.      11000
 120    DP.CALDAS-345B1061-30.                          105.  33.      11000
 122    BIBIUNA---500C1059-27.                          200.  38.      11000
 123    DCAMPINAS-345B1020-34.                          440. 160.      11000
 210    BITUMBIARA500C1036-.87                                         11000
 213    DMARIMBON-345B1042-8.4                           75.  25.      11000
 217    DITUMBIARA345B1032 -3.                          454.  48.      11000
 233    BSAMAMBAI-500C1009-8.6                                         11000
 234    DSAMAMBAI-345B 992-11.                          900. 300.      11000
 300   1AEMBORCAC-3GRA10008.35 700.-217.-880. 680.                     11000
 301   1AJAGUARA--3GRA10208.32 250.-85.3-140. 140.                     11000
 302   1AN.PONTE--3GRA10108.32 350.-146.-360. 285.                     11000
 303   1AS.SIMAO--3GRA10101.32 200.-247.-1200 840.                     11000
 320    BEMBORCAC-500C10343.08                                         11000
 325    BJAGUARA--500C10533.64                                         11000
 326    DJAGUARA--345B10452.43                          214.  74.      11000
 360    BNPONTE---500C10404.62                                         11000
 370    BSSIMAO---500C1045-.21                                         11000
 500   1AA.VERMEL-4GRA10202.15 800.-60.4-450. 450.                     11000
 535    BAVERMELHA500C1029-2.3                                         11000
 536    CAVERMELH-440B1003-7.9                          700. 150.      11000
 800   2AGBMUNHOZ-3GRA1030  0.1049.5.281-800. 800.                     21000
 808   1ASCAXIAS--4GRA103013.81150.46.14-600. 600.                     21000
 810   1ASSEGREDO-4GRA10306.571200.-157.-400. 532.                     21000
 814    EBATEIAS--230A1000-25.                         735.4 191.      21000
 824    BGBMUNHOZ-500C1061-6.3                                         21000
 834    ES.MATEUS-230A 995-17.                          13.4  4.2      21000
 839    ECASCAVEL-230A 9994.23                                         21000
 840    FCASCAVEL-138A 9861.24                          159.  36.      21000
 848    FFCHOPIM--138A10155.08                           94.  18.      21000
 856    BSEGREDO--500C1053 -.1                                         21000
 895    BBATEIAS--500C1065-23.                                         21000
 896    BCASCAVELO500C10496.23                                         21000
 897    BSCAXIAS--500C10567.46                                         21000
 898    EFCHOPIM--230A10288.37                                         21000
 904   1AITA------3GRA1040-3.2 700.-229.-475. 475.                     21000
 915   1AMACHADIN-2GRA1030-3.6 600.-205.-516. 465.                     21000
 919   1ASOSOR1A4-4GRA103015.9 700.155.4-148. 220.                     21000
 925   1ASSANTIAG-3GRA103010.3 950.13.17-440. 420.                     21000
 933    BAREIA----500C1061-6.7                                         21000
 934    EAREIA----230A1000-6.8                          237.  59.      21000
 938    BBLUMENAU-500C1071-25.                                         21000
 939    EBLUMENAU-230A1000-27.                         1149.53.06      21000
 955    BCNOVOS---500C1086-13.                                         21000
 959    BCURITIBA-500C1057-23.                                    100. 21000
 960    ECURITIBA-230A1000-25.                         844.7469.1      21000
 964    BCAXIAS---500C1073-20.                                         21000
 965    ECAXIAS---230A1000-22.                         755.656.24      21000
 976    BGRAVATAI-500C1050-22.                                         21000
 995    BITA------500C1078-8.7                                         21000
1015    EJOINVILLE230A1003-27.                           70.   2.      21000
1030    BMACHADIN-500C1078-10.                                         21000
1047    ESOSORIO--230A10359.31                                         21000
1060    BSSANTIAG-500C10612.53                                         21000
1210    EGRAVATAI-230A1000-25.                         1228. 425.      21000
1503    BITAJUBA--500C1059-36.                                         11000
1504    FITAJUBA--138A1056-39.                          110.  43.      11000
2458    ECASCAVEL-230A10004.01                          403. 126.      21000
9999
DLIN
(De) O  (Pa)NcEP ( R% )( X% )(Mvar)(Tap)(Tmn)(Tmx)(Phs)( Bc)(Cn)(Ce)Ns
 100      20 1          1.264         1.                    15201520  
 100     101 1     .172  2.72 231.4                         16652460  
 100     101 2     .171   2.7 230.2                         16652460  
 100     210 1     .209 2.935 254.6                         17321732  
 100     213 1          2.357         1.                     560 560  
 100     535 1     .153   2.4 203.8                         16651665  
 101     102 1     .156  2.46 208.5                         16651665  
 101     103 1     .152  2.39 202.6                         16651665  
 102     120 1          2.403         1.                     560 560  
 102    1503 1      .11  1.91161.85                         16651665  
 103     123 1          2.419         1.                     560 560  
 104     103 1     .196   3.1 264.9                         16651665  
 104    1503 1      .05   .82 69.36                         16651665  
 122      48 1           .953         1.                    10501050  
 122     103 1     .105 1.619136.35                         16651665  
 122     103 2     .105 1.619136.35                         16651665  
 210      18 1             1.         1.                    24002400  
 210     217 1           1.72         1.                     560 560  
 210     217 2           1.72         1.                     560 560  
 210     370 1     .147  2.32 196.6                         16651665  
 233     210 1      .28  3.99355.36                         25982598  
 233     320 1      .27  3.87344.03                         25982598  
 234     233 1          1.113         1.                    10501050  
 234     233 2             1.         1.                    10501050  
 320     210 1     .125 1.937149.96                         19481948  
 320     300 1         1.3567         1.                    12001200  
 320     360 1     .082 1.256 98.99                         20782078  
 325     301 1           3.51         1.                     500 500  
 325     326 1           2.16         1.                     400 483  
 325     326 2           2.16         1.                     400 483  
 325     360 1       .1 1.519119.67                         22512251  
 325     370 1      .28  4.84 419.5                         22052205  
 360     302 1         1.9367         1.                     537 537  
 370     303 1           1.41         1.                    17401740  
 370     535 1    .09311.3758 112.3                         22052205  
 535     500 1          1.025         1.                    15001500  
 536     535 1           1.42         1.                     750 900  
 814     895 1     .032 1.146      .9503   .9  1.1       814 600 60019
 814     895 2      .031.1651      .9503   .9  1.1       814 600 60019
 824     800 1           1.12      1.024                    16761676  
 824     933 1      .01  .12415.204                         21822182  
 824     933 2      .01  .12615.428                         21822182  
 834     934 1    2.44412.65221.706                          359 359  
 839     840 1           6.64         1. .8811.136       839 150 15016
 839     840 2           6.29         1. .8811.136       839 150 15016
 839     898 1     1.13  6.9912.617                          189 318  
 839    1047 1     1.22  7.69 13.81                          189 323  
 839    2458 1      .22  1.091.8601                          319 413  
 839    2458 2      .17  1.032.0537                          356 356  
 856     810 1           1.05         1.                    12601260  
 856     933 1     .052  .65480.493                         22732273  
 856    1060 1     .056  .69785.746                         21822182  
 895     122 1     .308 3.958444.84                         12992252  
 895     122 2     .308 3.958444.84                         12992252  
 896     897 1      .05   .73 78.06                         16371637  
 897     808 1           1.02      1.024                    13441478  
 898     848 1           6.36         1. .8811.136       898 150 15016
 898    1047 1      .15   .891.6317                          324 324  
 933     895 1       .2  2.55312.72                         21102110  
 933     955 1     .162 2.048250.17                         21102110  
 933     959 1       .2  2.69 336.4                         21822182  
 934     933 1 T   .031 1.207      .9477   .9  1.1       934 672 80619
 934    1047 1    3.04515.73827.123                          319 319  
 934    1047 2    3.04115.71827.089                          319 319  
 938     955 1    .25562.9224 360.4                         20372037  
 938     959 1     .127 1.603195.89                         12661266  
 939     938 1 T   .031  1.15       .936   .9  1.1       939 672 80619
 939     938 2 T   .032 1.163       .936   .9  1.1       939 672 80619
 939     938 3          1.277       .936   .9  1.1       939 672 67219
 939    1015 1 T  1.271 6.56211.305                          306 319  
 939    1015 2 T  1.283 6.56411.522                          306 319  
 955     964 1    .18772.3467287.24                         16881688  
 959     895 1      .05   .44 47.58                         21102110  
 960     834 1     2.2111.47519.687                          319 319  
 960     959 1 T   .032 1.163      .9744   .9  1.1       960 672 80619
 960     959 2 T   .031 1.166      .9744   .9  1.1       960 672 80619
 960    1015 1    1.892 9.77616.845                          319 319  
 960    1015 2    1.895 9.70417.029                          319 319  
 964     976 1    .0733 .9164112.17                         16881688  
 965     964 1 T    .02 1.211      .9349   .9  1.1       965 672 80619
 965     964 2 T    .02 1.233      .9349   .9  1.1       965 672 80619
 976     995 1     .282 3.852 493.7                         16881688  
 995     904 1 T .012331.5383         1.                    16251625  
 995     964 1    .16433.0339354.88                         21822182  
 995    1030 1     .073   .92112.26                         21822182  
 995    1060 1     .172  2.17265.16                         21102110  
1030     915 1 T       2.0655         1.                    12541254  
1030     955 1     .047   .5971.818                         21822182  
1047     919 1 T .024251.7022      1.025                     788 788  
1060     897 1     .076 1.171124.58                         23702681  
1060     925 1 T .01133 1.515      1.024                    14021402  
1210     976 1 T    .03 1.219      .9681   .9  1.1      1210 672 80619
1210     976 2 T   .039 1.138      .9681   .9  1.1      1210 672 80619
1210     976 3 T   .036 1.217      .9681   .9  1.1      1210 672 80619
1503    1504 1            5.2      .9824  .95  1.1      1503 300 30013
2458     896 1           1.27      .9654   .9  1.1      2458 600 60019
9999
DGLT
(G (Vmn) (Vmx)
 A   .95  1.05
 C   .95   1.1
 B   .95  1.07
99
DARE
(Ar)    (Xchg)     (      Identificacao da area       ) (Xmin) (Xmax)
   1        0.     AREA UM                                           
   2        0.     AREA DOIS                                         
9999
DGBT
(G ( kV)
 A  13.8
 B  500.
 D  345.
 C  440.
 E  230.
 F  138.
99
DGGB
(G Co Es
 A  0  1
 B  0  1
 D  0  1
 C  0  1
 E  0  1
 F  0  1
99
FIM
